@<TRIPOS>MOLECULE
Sniffy
70 70 1 0 0
SMALL
bcc


@<TRIPOS>ATOM
      1 N1         12.9750  -16.7850    5.2130 n3       1  <1>     -0.913800  # PARM 8
      2 C1         12.6840  -18.0450    5.8070 c3       1  <1>      0.036500  # PARM 8
      3 C2         11.4600  -18.7090    5.2050 c        1  <1>      0.528900  # PARM 8
      4 O1         11.4760  -19.8270    4.6900 o        1  <1>     -0.508100  # PARM 8
      5 C3         12.4140  -17.9040    7.2980 c3       1  <1>     -0.075400  # PARM 8
      6 C4         13.6500  -17.5090    8.1580 c3       1  <1>     -0.078398  # PARM 8
      7 C5         14.2840  -18.5410    9.0630 c3       1  <1>     -0.102400  # PARM 8
      8 C6         15.1320  -17.9630   10.1980 c3       1  <1>      0.004300  # PARM 8
      9 N2         15.7420  -16.6210    9.8560 na       1  <1>     -0.304100  # PARM 8
     10 C7         16.6350  -16.4690    8.8880 ce       1  <1>      0.422500  # PARM 8
     11 C8         17.3890  -15.2530    8.7980 ce       1  <1>     -0.439600  # PARM 8
     12 C9         18.1670  -14.8980    7.7690 cf       1  <1>      0.136800  # PARM 8
     13 C10        18.3770  -15.8760    6.6110 c3       1  <1>     -0.098568  # PARM 8
     14 C11        18.9770  -13.6690    7.9460 cf       1  <1>     -0.189250  # PARM 8
     15 C12        19.6760  -13.0690    6.9430 ce       1  <1>      0.066000  # PARM 8
     16 C13        20.5420  -11.8850    7.2110 ce       1  <1>     -0.189250  # RPT 8 COULC11 /RPT
     17 C14        21.4840  -11.4140    4.8670 c3       1  <1>     -0.098568  # RPT 8 COULC10 /RPT
     18 C15        22.2030  -10.0140    6.9730 cf       1  <1>     -0.189250  # RPT 8 COULC11 /RPT
     19 C16        22.6840   -9.0040    6.1940 ce       1  <1>     -0.189250  # RPT 8 COULC11 /RPT
     20 C17        23.4260   -7.8540    6.6450 ce       1  <1>     -0.126200  # PARM 8
     21 C18        23.8680   -7.0500    5.6720 c2       1  <1>     -0.051400  # PARM 8
     22 C19        23.7600   -7.5280    4.2690 c3       1  <1>     -0.098568  # RPT 8 COULC10 /RPT
     23 C20        24.8310   -5.8570    5.8610 c3       1  <1>     -0.052200  # PARM 8
     24 C21        25.6320   -5.9780    7.1630 c3       1  <1>     -0.078398  # RPT 8 COULC4 /RPT
     25 C22        24.7890   -6.2440    8.2120 c3       1  <1>     -0.072400  # PARM 8
     26 C23        23.9030   -7.5010    8.0520 c3       1  <1>     -0.004800  # PARM 8
     27 C24        24.7780   -8.6640    8.5310 c3       1  <1>     -0.088100  # PARM 8
     28 C25        22.9720   -7.3720    9.1750 c3       1  <1>     -0.088100  # RPT 8 COULC24 /RPT
     29 C26        21.3560  -11.1630    6.4050 cf       1  <1>      0.136800  # RPT 8 COULC9 /RPT
     30 H1         13.5060  -18.8030    5.7040 h1       1  <1>      0.076700  # PARM 8
     31 H2         11.6630  -17.1630    7.5260 hc       1  <1>      0.056950  # PARM 8
     32 H3         12.0860  -18.8960    7.7580 hc       1  <1>      0.056950  # RPT 8 COULH2 /RPT
     33 H4         13.2770  -16.6200    8.6220 hc       1  <1>      0.056950  # RPT 8 COULH2 /RPT
     34 H5         14.4060  -17.0710    7.5180 hc       1  <1>      0.056950  # RPT 8 COULH2 /RPT
     35 H6         13.5190  -19.2370    9.3240 hc       1  <1>      0.056950  # RPT 8 COULH2 /RPT
     36 H7         14.9980  -19.1020    8.4020 hc       1  <1>      0.056950  # RPT 8 COULH2 /RPT
     37 H8         15.9640  -18.5860   10.5400 h1       1  <1>      0.080200  # PARM 8
     38 H9         14.5360  -17.8410   11.1890 h1       1  <1>      0.080200  # RPT 8 COULH8 /RPT
     39 H10        15.6720  -15.9370   10.7250 hn       1  <1>      0.303700  # PARM 8
     40 H11        17.4250  -14.5010    9.5860 ha       1  <1>      0.143500  # PARM 8
     41 H12        18.9990  -13.1910    8.8960 ha       1  <1>      0.143500  # RPT 8 COULH11 /RPT
     42 H13        19.6940  -13.6270    5.9950 ha       1  <1>      0.143500  # RPT 8 COULH11 /RPT
     43 H14        20.4690  -11.5690    8.2320 ha       1  <1>      0.143500  # RPT 8 COULH11 /RPT
     44 H15        22.1600  -10.1340    8.0190 ha       1  <1>      0.143500  # RPT 8 COULH11 /RPT
     45 H16        11.1020  -18.0300    4.4310 h4       1  <1>      0.019200  # PARM 8
     46 H17        12.9410  -16.0630    5.9190 hn       1  <1>      0.360300  # PARM 8
     47 H18        12.2940  -16.5860    4.4940 hn       1  <1>      0.360300  # RPT 8 COULH17 /RPT
     48 H19        22.5080   -8.9220    5.1130 ha       1  <1>      0.143500  # RPT 8 COULH11 /RPT
     49 H20        16.6940  -17.2630    8.1460 h4       1  <1>      0.070800  # PARM 8
     50 H21        18.9440  -16.8210    6.9290 hc       1  <1>      0.053900  # PARM 8
     51 H22        18.7590  -15.3790    5.7040 hc       1  <1>      0.053900  # RPT 8 COULH21 /RPT
     52 H23        17.3300  -16.1680    6.4010 hc       1  <1>      0.053900  # RPT 8 COULH21 /RPT
     53 H24        21.2180  -12.4590    4.5550 hc       1  <1>      0.053900  # RPT 8 COULH21 /RPT
     54 H25        22.4800  -11.1530    4.4050 hc       1  <1>      0.053900  # RPT 8 COULH21 /RPT
     55 H26        20.7560  -10.7820    4.3540 hc       1  <1>      0.053900  # RPT 8 COULH21 /RPT
     56 H27        24.2490   -8.5640    4.3620 hc       1  <1>      0.053900  # RPT 8 COULH21 /RPT
     57 H28        24.2990   -6.8540    3.5850 hc       1  <1>      0.053900  # RPT 8 COULH21 /RPT
     58 H29        22.6820   -7.6290    3.9150 hc       1  <1>      0.053900  # RPT 8 COULH21 /RPT
     59 H30        24.1450   -4.9910    5.8750 hc       1  <1>      0.056950  # RPT 8 COULH2 /RPT
     60 H31        25.3650   -5.6470    4.9500 hc       1  <1>      0.056950  # RPT 8 COULH2 /RPT
     61 H32        25.9530   -4.9290    7.2740 hc       1  <1>      0.056950  # RPT 8 COULH2 /RPT
     62 H33        26.3410   -6.7160    7.1260 hc       1  <1>      0.056950  # RPT 8 COULH2 /RPT
     63 H34        24.0950   -5.3930    8.2580 hc       1  <1>      0.056950  # RPT 8 COULH2 /RPT
     64 H35        25.2810   -6.2400    9.1750 hc       1  <1>      0.056950  # RPT 8 COULH2 /RPT
     65 H36        25.5350   -8.9150    7.8310 hc       1  <1>      0.053900  # RPT 8 COULH21 /RPT
     66 H37        24.1810   -9.5470    8.8520 hc       1  <1>      0.053900  # RPT 8 COULH21 /RPT
     67 H38        25.2460   -8.3620    9.4390 hc       1  <1>      0.053900  # RPT 8 COULH21 /RPT
     68 H39        22.0920   -6.7550    8.9570 hc       1  <1>      0.053900  # RPT 8 COULH21 /RPT
     69 H40        22.5630   -8.3870    9.3830 hc       1  <1>      0.053900  # RPT 8 COULH21 /RPT
     70 H41        23.4840   -7.0510   10.1000 hc       1  <1>      0.053900  # RPT 8 COULH21 /RPT
@<TRIPOS>BOND
     1    57    22    1
     2    58    22    1
     3    22    56    1
     4    22    21    1
     5    55    17    1
     6    54    17    1
     7    45     3    1
     8    47     1    1
     9    53    17    1
    10     4     3    2
    11    17    29    1
    12    60    23    1
    13    48    19    1
    14     3     2    1
    15     1     2    1
    16     1    46    1
    17    21    23    1
    18    21    20    2
    19    51    13    1
    20    30     2    1
    21     2     5    1
    22    23    59    1
    23    23    24    1
    24    42    15    1
    25    19    20    1
    26    19    18    2
    27    52    13    1
    28    29    18    1
    29    29    16    2
    30    13    50    1
    31    13    12    1
    32    20    26    1
    33    15    16    1
    34    15    14    2
    35    18    44    1
    36    62    24    1
    37    24    61    1
    38    24    25    1
    39    16    43    1
    40     5    31    1
    41     5    32    1
    42     5     6    1
    43    34     6    1
    44    12    14    1
    45    12    11    2
    46    65    27    1
    47    14    41    1
    48    26    25    1
    49    26    27    1
    50    26    28    1
    51    49    10    1
    52     6    33    1
    53     6     7    1
    54    25    63    1
    55    25    64    1
    56    36     7    1
    57    27    66    1
    58    27    67    1
    59    11    10    1
    60    11    40    1
    61    10     9    2
    62    68    28    1
    63     7    35    1
    64     7     8    1
    65    28    69    1
    66    28    70    1
    67     9     8    1
    68     9    39    1
    69     8    37    1
    70     8    38    1


@<TRIPOS>SUBSTRUCTURE
     1 <1>         1 TEMP              0 ****  ****    0 ROOT

